/*--------------------------------*- C++ -*----------------------------------*\
  =========                 |
  \\      /  F ield         | OpenFOAM: The Open Source CFD Toolbox
   \\    /   O peration     | Website:  https://openfoam.org
    \\  /    A nd           | Version:  6
     \\/     M anipulation  |
\*---------------------------------------------------------------------------*/
FoamFile
{
    version     2.0;
    format      ascii;
    class       polyBoundaryMesh;
    location    "constant/polyMesh";
    object      boundary;
}
// * * * * * * * * * * * * * * * * * * * * * * * * * * * * * * * * * * * * * //

5
(
    up2
    {
        type            wall;
        inGroups        1(wall);
        nFaces          272;
        startFace       20954948;
    }
    up1
    {
        type            wall;
        inGroups        1(wall);
        nFaces          146492;
        startFace       20955220;
    }
    outlet
    {
        type            wall;
        inGroups        1(wall);
        nFaces          64608;
        startFace       21101712;
    }
    down
    {
        type            wall;
        inGroups        1(wall);
        nFaces          146492;
        startFace       21166320;
    }
    inlet
    {
        type            wall;
        inGroups        1(wall);
        nFaces          272;
        startFace       21312812;
    }
)

// ************************************************************************* //
